Version 4
SHEET 1 880 680
WIRE 80 96 48 96
WIRE 352 96 208 96
WIRE 400 96 352 96
WIRE 80 144 16 144
WIRE -816 192 -816 160
WIRE -656 192 -656 160
WIRE -496 192 -496 160
WIRE 352 224 352 96
WIRE 352 224 320 224
WIRE 48 240 48 96
WIRE 48 240 16 240
WIRE 144 240 144 224
WIRE 256 240 144 240
WIRE 144 256 144 240
WIRE 352 256 320 256
WIRE -816 304 -816 272
WIRE -656 304 -656 272
WIRE -496 304 -496 272
WIRE 80 336 16 336
WIRE 48 384 48 240
WIRE 80 384 48 384
WIRE 352 384 352 256
WIRE 352 384 208 384
WIRE 384 384 352 384
FLAG 16 144 ref_clk
IOPIN 16 144 In
FLAG 16 336 fb_clk
IOPIN 16 336 In
FLAG 400 96 UP
IOPIN 400 96 Out
FLAG 384 384 DOWN
IOPIN 384 384 Out
FLAG 16 240 vcc
FLAG -816 160 fb_clk
FLAG -656 160 ref_clk
FLAG -816 304 0
FLAG -656 304 0
FLAG -496 304 0
FLAG -496 160 vcc
SYMBOL DigitalLogic\\DFF_R 144 128 R0
SYMATTR InstName U1
SYMBOL DigitalLogic\\DFF_R 144 352 M180
SYMATTR InstName U2
SYMBOL DigitalLogic\\NAND_2 288 240 M0
SYMATTR InstName U3
SYMBOL voltage -816 176 R0
WINDOW 123 0 0 Left 0
WINDOW 39 0 0 Left 0
SYMATTR InstName V1
SYMATTR Value PULSE(0 5 0 1n 1n 4u 8u)
SYMBOL voltage -656 176 R0
WINDOW 123 0 0 Left 0
WINDOW 39 0 0 Left 0
SYMATTR InstName V2
SYMATTR Value PULSE(0 5 0 1n 1n 5u 10u)
SYMBOL voltage -496 176 R0
WINDOW 123 0 0 Left 0
WINDOW 39 0 0 Left 0
SYMATTR InstName V3
SYMATTR Value 5
TEXT -610 460 Left 2 !.tran 100u
